%chk=CP22CA.M062X_6-311pGd_opt_water_GD3.chk
# M062X/6-311+G* SCF=Tight INT(grid=ultrafine) OPT IOP(2/17=4)   EmpiricalDispersion=GD3  SCRF=(SMD,Solvent=h2o)

CP22CA.M062X_6-311pGd_opt_water_GD3

0 1
C     -5.8833497047    1.2530644399    0.1928913806
N     -4.6186464885    0.6713795485    0.0930326618
C     -3.4109092320    1.3081787675    0.0911101431
O     -3.2399168670    2.5085450412    0.1596546811
O     -2.4252926064    0.4109281484    0.0017664727
C     -1.0819586542    0.9425031510   -0.0006784665
C     -0.1283643605   -0.2257784002   -0.1025852966
C      1.3154025920    0.2648046001   -0.1010774719
C     -6.0971835046    2.6329487445    0.2288294958
C     -7.4045766344    3.0798830063    0.3292222320
C     -8.5129642450    2.2540627702    0.3927900530
C     -8.2566419314    0.8894337628    0.3496167012
C     -6.9754632161    0.3803689249    0.2524346229
H     -4.5865783143   -0.3403682309    0.0492606464
H     -0.9302097215    1.5049024323    0.9228310544
H     -0.9782986527    1.6209716877   -0.8497996315
H     -0.3395005997   -0.7821946312   -1.0197823521
H     -0.2999666211   -0.9025499300    0.7388664154
H      1.5053391067    0.9337593193   -0.9441949974
H      2.0107583737   -0.5727555337   -0.1756896089
H      1.5449989018    0.8097004276    0.8180427649
H     -5.2686105510    3.3209092420    0.1796998157
Cl    -9.5988275176   -0.2174482607    0.4218343503
H     -6.8126305129   -0.6912188738    0.2228339760
S     -7.6731886356    4.8679411388    0.3792519079
H     -9.5240360617    2.6304787873    0.4709205548
F     -6.6520417061    5.1421594652   -0.8436257657
F     -8.9021762004    4.7991449563   -0.6689170174
F     -6.4702585589    5.1061698382    1.4324208408
F     -8.7202487633    4.7621516157    1.6066911971
F     -7.9137391125    6.4672140446    0.4241386400





--Link1--
%chk=CP22CA.M062X_6-311pGd_opt_water_GD3.chk
# M062X/6-311+G* SCF=Tight INT(grid=ultrafine)     SCRF=(SMD,Solvent=h2o) EmpiricalDispersion=GD3  Freq=Noraman 
geom=check guess=read IOP(2/17=4)

CP22CA.M062X_6-311pGd_opt_water_GD3

0 1



