%NprocShared=6
%Mem=1194000MB
%chk=CP22CA.DSDPBEP86_AUG-cc-PVTZ.chk
# DSDPBEP86/AUG-cc-PVTZ SCF=Tight INT(grid=ultrafine)  MaxDisk=1400000MB

CP22CA.DSDPBEP86_AUG-cc-PVTZ

0 1
C     -5.8850653888    1.2485276222    0.2169643586
N     -4.6148365768    0.6712965052    0.1442754525
C     -3.4042293798    1.3229091055    0.1061891376
O     -3.2363729909    2.5133960652    0.1294573590
O     -2.4237232336    0.4107499718    0.0379678909
C     -1.0893537805    0.9438254586   -0.0088387146
C     -0.1301781247   -0.2240138484   -0.0834309874
C      1.3156248667    0.2623663639   -0.1365505101
C     -6.0936133610    2.6300491127    0.2627860152
C     -7.3995706703    3.0843459670    0.3339561154
C     -8.5088886159    2.2562518753    0.3624483165
C     -8.2657085414    0.8906930633    0.3154629426
C     -6.9811981273    0.3811048469    0.2438057615
H     -4.5624644233   -0.3362093510    0.1155702556
H     -0.9224485164    1.5507014193    0.8842424698
H     -1.0029293345    1.5972933560   -0.8801912677
H     -0.3642618935   -0.8213069013   -0.9687968991
H     -0.2841523952   -0.8676709298    0.7868709884
H      1.4903205477    0.8931407982   -1.0114654601
H      2.0089540257   -0.5777224768   -0.1904668651
H      1.5707895556    0.8464498438    0.7509228164
H     -5.2582936836    3.3124029640    0.2428738608
Cl    -9.6087554177   -0.2111412185    0.3473381294
H     -6.8344291654   -0.6926059542    0.2088766481
S     -7.6713237805    4.8765224224    0.3935065476
H     -9.5171530304    2.6416664965    0.4183148583
F     -6.6100374430    5.1462458464   -0.7896323887
F     -8.8624274017    4.7959173810   -0.6954515179
F     -6.5063752001    5.0862927603    1.4879468545
F     -8.7588393883    4.7359846604    1.5803581536
F     -7.9181391312    6.4618267740    0.4464796784




