%chk=NM2_c2.M062X_6-311pGd_opt_water_GD3.chk
# M062X/6-311+G* SCF=Tight INT(grid=ultrafine) OPT IOP(2/17=4)   EmpiricalDispersion=GD3  SCRF=(SMD,Solvent=h2o)

NM2_c2.M062X_6-311pGd_opt_water_GD3

0 1
C     -5.8309322985    1.3986497390    0.3634265697
N     -4.6135133844    0.7278170464    0.3181879085
C     -3.3595758666    1.2849722983    0.1224024106
O     -3.1784491031    2.4965935342   -0.0099186454
N     -2.3532317509    0.3911340424    0.0821139109
C     -0.9735275340    0.8197001501   -0.1146066522
C     -0.0420965304   -0.3807343930   -0.1018116901
C      1.4059908613    0.0458041019   -0.3079415901
C     -6.9874449579    0.6255789951    0.1790439886
C     -8.2453585161    1.1970592073    0.2232635740
C     -8.3851704637    2.5733275676    0.4661443580
C     -7.2360684692    3.3312101168    0.6521823306
C     -5.9691440460    2.7652432445    0.6099066676
H     -4.6739205137   -0.2824311659    0.2725463540
H     -2.5379108235   -0.5923980570    0.2269803274
H     -0.6944066148    1.5217168781    0.6763430418
H     -0.8915508304    1.3508856527   -1.0670335295
H     -0.3432932195   -1.0793958760   -0.8885373211
H     -0.1461397620   -0.9074541240    0.8519473044
H      1.5322762240    0.5556145879   -1.2665026325
H      2.0747594860   -0.8167695405   -0.2974696112
H      1.7296980565    0.7299499368    0.4806339837
H     -6.8815138954   -0.4365967242   -0.0075594886
H     -5.1041988493    3.3867365138    0.7778670430
C     -9.7109683692    3.2799962815    0.5037967812
C     -9.4253221072    0.2757639263    0.0324010283
H     -7.3204806433    4.3928969135    0.8461764663
F    -10.6482247626    2.5949220910    1.1802381015
F    -10.2128656152    3.5070178660   -0.7250918692
F     -9.6181607861    4.4799771097    1.0944854138
F     -9.0691948847   -0.8833169207   -0.5365507844
F    -10.3722390582    0.8103031380   -0.7531489279
F    -10.0155309720   -0.0404241373    1.1977451783





--Link1--
%chk=NM2_c2.M062X_6-311pGd_opt_water_GD3.chk
# M062X/6-311+G* SCF=Tight INT(grid=ultrafine)     SCRF=(SMD,Solvent=h2o) EmpiricalDispersion=GD3  Freq=Noraman 
geom=check guess=read IOP(2/17=4)

NM2_c2.M062X_6-311pGd_opt_water_GD3

0 1



