%chk=carboxy.M062X_6-311pGd_opt_GD3.chk
# M062X/6-311+G* SCF=Tight INT(grid=ultrafine) OPT=CalcFC IOP(2/17=4)   EmpiricalDispersion=GD3 

carboxy.M062X_6-311pGd_opt_GD3

-1 1
C     -1.3393400000    0.4027300000   -0.0255300000
C     -1.5584900000   -1.0857700000    0.0469100000
C     -0.2583700000   -1.8888200000    0.0064200000
O     -0.2165600000    0.8773300000   -0.1076900000
O     -2.4037100000    1.2266900000    0.0008900000
H     -2.1958300000   -1.3933300000   -0.8094900000
H     -2.0948100000   -1.3205700000    0.9910700000
H      0.2879200000   -1.6917900000   -0.9407400000
H     -0.4894500000   -2.9734400000    0.0632100000
H      0.3893800000   -1.6187200000    0.8677100000





--Link1--
%chk=carboxy.M062X_6-311pGd_opt_GD3.chk
# M062X/6-311+G* SCF=Tight INT(grid=ultrafine)   EmpiricalDispersion=GD3   Freq=Noraman
geom=check guess=read IOP(2/17=4)

carboxy.M062X_6-311pGd_opt_GD3

-1 1



