%NprocShared=6
%Mem=192000MB
%chk=carboxy.DSDPBEP86_AUG-cc-PVTZ.chk
# DSDPBEP86/AUG-cc-PVTZ SCF=Tight INT(grid=ultrafine) Pop=NBO MaxDisk=60000MB

carboxy.DSDPBEP86_AUG-cc-PVTZ

-1 1
C     -1.3498935432    0.4640729973   -0.0248179596
C     -1.5557058876   -1.0839435575    0.0481367936
C     -0.2686741864   -1.8986891899    0.0043052719
O     -0.1700671173    0.8635961794   -0.1102069650
O     -2.4068815760    1.1286971575    0.0115012606
H     -2.2215367563   -1.3608214454   -0.7769126173
H     -2.1189257690   -1.2923942958    0.9646653086
H      0.2855342270   -1.6885397916   -0.9127885059
H     -0.4613436848   -2.9775148411    0.0579604608
H      0.3882162614   -1.6201620367    0.8309194132




