%NprocShared=6
%Mem=16000MB
%chk=NM3_c2.M062X_6-311pGd_opt_Pentadecane_GD3.chk
# M062X/6-311+G* SCF=Tight INT(grid=ultrafine) OPT IOP(2/17=4)   EmpiricalDispersion=GD3   SCRF=(SMD,Solvent=n-Pentadecane) MaxDisk=10000MB

NM3_c2.M062X_6-311pGd_opt_Pentadecane_GD3

0 1
C     -5.9864352254    1.4171325134    0.2377723074
N     -4.7565035645    0.7708856884    0.1097782909
C     -3.4893161379    1.3428896481    0.1252721309
O     -3.2908131198    2.5309881516    0.2892215474
N     -2.4836071717    0.4360478382   -0.0384425187
C     -1.1033436520    0.8867560496   -0.1558022717
C     -0.1504115463   -0.2961559546   -0.0666105897
C      1.3028627767    0.1485105884   -0.1850128165
C     -7.1314261433    0.6106033638    0.2314742546
C     -8.3853112786    1.1844474962    0.3499315800
C     -8.5512722015    2.5592279280    0.4732382710
C     -7.4044632493    3.3371248554    0.4769413421
C     -6.1280429957    2.8036419380    0.3633352244
H     -4.8039090526   -0.2373132557    0.0664414229
H     -2.7010156318   -0.4828073067   -0.3967002966
H     -0.9105979193    1.5934463641    0.6531756668
H     -0.9549289650    1.4271669685   -1.0979019890
H     -0.3814264342   -1.0131426604   -0.8631255864
H     -0.3116209871   -0.8131715999    0.8842720225
H      1.4875638987    0.6484409712   -1.1392549925
H      1.9830341527   -0.7025806678   -0.1191726947
H      1.5664903112    0.8473707993    0.6128286065
H     -7.0339785426   -0.4654065354    0.1378028202
Cl    -7.5669926477    5.0662061974    0.6366423504
H     -5.2613546947    3.4460347048    0.3773223657
C     -9.6015186300    0.3065180917    0.2757683628
H     -9.5320964269    3.0065716252    0.5685822032
F    -10.6201082677    0.7908328244    0.9979061744
F    -10.0492760237    0.1841308499   -0.9870036245
F     -9.3578706301   -0.9373674753    0.7154204365





--Link1--
%chk=NM3_c2.M062X_6-311pGd_opt_Pentadecane_GD3.chk
# M062X/6-311+G* SCF=Tight INT(grid=ultrafine)   EmpiricalDispersion=GD3   SCRF=(SMD,Solvent=n-Pentadecane)  Freq=Noraman MaxDisk=10000MB
geom=check guess=read IOP(2/17=4)

NM3_c2.M062X_6-311pGd_opt_Pentadecane_GD3

0 1



