%chk=NM2CA.MP2_GTMP2LARGE.chk
# MP2/Gen 5D SCF=Tight INT(grid=ultrafine)    

NM2CA.MP2_GTMP2LARGE

0 1
C     -5.8588072686    1.2111492307    0.1765981364
N     -4.5783552515    0.6613963421    0.0965637384
C     -3.3772640731    1.3312596646    0.0688840707
O     -3.2251605941    2.5234746613    0.1014129193
O     -2.3834248538    0.4328324766   -0.0015628558
C     -1.0564220882    0.9838422492   -0.0396510138
C     -0.0814529449   -0.1708444406   -0.1160746397
C      1.3580869879    0.3344326272   -0.1611529455
C     -6.1019413123    2.5881754102    0.2090307151
C     -7.4040772143    3.0635195247    0.2891005306
C     -8.4893914329    2.1803809261    0.3495706037
C     -8.2339387569    0.8136544470    0.3066952856
C     -6.9403606759    0.3309673082    0.2215756196
H     -4.5084338831   -0.3451489540    0.0663478128
H     -0.9011950882    1.5882182270    0.8572329536
H     -0.9746384080    1.6429924946   -0.9071998292
H     -0.3042977462   -0.7669646020   -1.0051377612
H     -0.2304552435   -0.8207738729    0.7504451019
H      1.5281416988    0.9713349765   -1.0325394672
H      2.0624854568   -0.4963533344   -0.2159735193
H      1.6021751227    0.9177976369    0.7299077194
H     -5.2755772973    3.2805548985    0.1659665702
H     -6.7693793068   -0.7402053567    0.1937269816
C     -9.9313505744    2.6225811931    0.4228828754
C     -7.5726345193    4.5686610814    0.3487813804
H     -9.0594515796    0.1152207494    0.3489440029
F    -10.1165013281    3.6287527417    1.2819388412
F    -10.7206302911    1.6146152223    0.8302329734
F    -10.4019397942    3.0141985411   -0.7686665911
F     -6.4779323569    5.2004330284   -0.0921049858
F     -7.7843419063    4.9904186235    1.6016609346
F     -8.5938634760    4.9919462782   -0.4019361584

@/home/507/hio507/Basis/GTMP2LARGE.gbs/N


