%chk=NM2CA.M062X_6-311pGd_opt_GD3.chk
# M062X/6-311+G* SCF=Tight INT(grid=ultrafine) OPT IOP(2/17=4)   EmpiricalDispersion=GD3 

NM2CA.M062X_6-311pGd_opt_GD3

0 1
C     -5.8587933488    1.2110995922    0.1765889385
N     -4.5783532820    0.6613273316    0.0965548686
C     -3.3772628600    1.3311749464    0.0688648773
O     -3.2251426782    2.5233902117    0.1013270824
O     -2.3834273657    0.4327500714   -0.0014920854
C     -1.0564459456    0.9838160304   -0.0396923621
C     -0.0814358087   -0.1708387971   -0.1159893398
C      1.3580781797    0.3344973262   -0.1612174343
C     -6.1018980073    2.5881361054    0.2090216298
C     -7.4040252617    3.0634893019    0.2891249757
C     -8.4893477522    2.1803661989    0.3495537915
C     -8.2339369854    0.8136381208    0.3066680393
C     -6.9403607736    0.3309345264    0.2215632172
H     -4.5084463234   -0.3452219144    0.0664000055
H     -0.9012022591    1.5883241890    0.8571006562
H     -0.9747101764    1.6428494213   -0.9073357004
H     -0.3042915933   -0.7671132910   -1.0049479484
H     -0.2303632655   -0.8206381239    0.7506429164
H      1.5280715122    0.9712355902   -1.0327375213
H      2.0625108809   -0.4962704218   -0.2158973577
H      1.6021648883    0.9180498696    0.7297222696
H     -5.2755263183    3.2805017113    0.1659374805
H     -6.7693966579   -0.7402407771    0.1937106954
C     -9.9312496012    2.6227108729    0.4228910998
C     -7.5727178842    4.5686132387    0.3488066588
H     -9.0594630810    0.1152187774    0.3489014604
F    -10.1162550227    3.6287168600    1.2821676595
F    -10.7206469501    1.6147593159    0.8300664337
F    -10.4018163824    3.0146101006   -0.7685513766
F     -6.4778511869    5.2005447506   -0.0914235891
F     -7.7852017211    4.9902759633    1.6015796335
F     -8.5935869683    4.9918129011   -0.4024096749





--Link1--
%chk=NM2CA.M062X_6-311pGd_opt_GD3.chk
# M062X/6-311+G* SCF=Tight INT(grid=ultrafine)     EmpiricalDispersion=GD3  Freq=Noraman 
geom=check guess=read IOP(2/17=4)

NM2CA.M062X_6-311pGd_opt_GD3

0 1



