%chk=NM2CA.M062X_6-311pGd_opt_water_GD3.chk
# M062X/6-311+G* SCF=Tight INT(grid=ultrafine) OPT IOP(2/17=4)   EmpiricalDispersion=GD3  SCRF=(SMD,Solvent=h2o)

NM2CA.M062X_6-311pGd_opt_water_GD3

0 1
C     -5.8511112692    1.2218364990    0.2215980082
N     -4.5706710006    0.6710455332    0.1703740125
C     -3.3756520058    1.3279285790    0.0999977382
O     -3.2216287459    2.5323163138    0.0917488331
O     -2.3779396916    0.4404659337    0.0395778016
C     -1.0439912724    0.9867170977   -0.0463889617
C     -0.0791230928   -0.1749294198   -0.1136983497
C      1.3567604973    0.3301466709   -0.2035552927
C     -6.1015430302    2.5969146852    0.2742060991
C     -7.4078415133    3.0644277880    0.3188993785
C     -8.4893758173    2.1743972587    0.3292163306
C     -8.2266303427    0.8086057116    0.2732547896
C     -6.9287491218    0.3342144229    0.2201491148
H     -4.5152219929   -0.3405119643    0.1502347068
H     -0.8645120548    1.6069276718    0.8341715952
H     -0.9815971943    1.6124485073   -0.9389957034
H     -0.3200624058   -0.7907504423   -0.9844568163
H     -0.2069891192   -0.7989998603    0.7749336250
H      1.5029832023    0.9454140900   -1.0949063656
H      2.0595534436   -0.5030526387   -0.2535561384
H      1.6165307434    0.9355072469    0.6685039940
H     -5.2815977473    3.2969287175    0.2766716775
H     -6.7461659859   -0.7336642170    0.1768207434
C     -9.9292194865    2.6098244452    0.3574290475
C     -7.5864240215    4.5625799883    0.3955910091
H     -9.0448481075    0.1001870045    0.2720595699
F    -10.1538284858    3.6172273323    1.2162467552
F    -10.7407878456    1.6088491248    0.7268883452
F    -10.3674281937    3.0225819274   -0.8463022976
F     -6.4852264577    5.2190110319    0.0095418573
F     -7.8554367767    4.9768956991    1.6453555296
F     -8.5845551077    5.0010292617   -0.3861106363





--Link1--
%chk=NM2CA.M062X_6-311pGd_opt_water_GD3.chk
# M062X/6-311+G* SCF=Tight INT(grid=ultrafine)     SCRF=(SMD,Solvent=h2o) EmpiricalDispersion=GD3  Freq=Noraman 
geom=check guess=read IOP(2/17=4)

NM2CA.M062X_6-311pGd_opt_water_GD3

0 1



