%chk=CP19.M062X_6-311pGd_opt_Pentadecane_GD3.chk
# M062X/6-311+G* SCF=Tight INT(grid=ultrafine) OPT IOP(2/17=4)   EmpiricalDispersion=GD3  SCRF=(SMD,Solvent=n-Pentadecane)

CP19.M062X_6-311pGd_opt_Pentadecane_GD3

0 1
C     -6.3271338838    1.2294330623   -0.0222559869
N     -5.0500223118    0.6759565257    0.0239476913
C     -3.8292189812    1.3434710649   -0.0269506005
O     -3.7267521689    2.5458179562   -0.1681114750
N     -2.7541311918    0.5092268391    0.0699215392
C     -1.4054308134    1.0566258259    0.1299927478
C     -0.3765327677   -0.0461481894   -0.0717939939
C      1.0453271724    0.5005130880   -0.0158597761
C     -6.5729735020    2.6074781825   -0.0245666447
C     -7.8818350603    3.0622210615   -0.0543738586
C     -8.9687456147    2.1889315194   -0.0843635912
C     -8.7090839892    0.8205183458   -0.0829878504
C     -7.4127668141    0.3437425385   -0.0528235214
H     -5.0194133496   -0.3340781968    0.0120946592
H     -2.8874253589   -0.4220259969    0.4377165906
H     -1.2389508918    1.5656430488    1.0865441986
H     -1.3157236487    1.8101073757   -0.6541438829
H     -0.5584387900   -0.5307662452   -1.0358349129
H     -0.5053185287   -0.8135720777    0.7003549506
H      1.2084760816    1.2524455122   -0.7920231727
H      1.7798194833   -0.2933182033   -0.1631965158
H      1.2520092067    0.9692853775    0.9496347418
H     -5.7571313327    3.3126684340   -0.0079199191
Cl    -8.1283659569    4.7863170987   -0.0531375828
C    -10.3848913176    2.6844018720   -0.1181082978
H     -9.5348716121    0.1207409889   -0.1065445020
H     -7.2359510915   -0.7265479540   -0.0524494219
F    -11.2606642580    1.6668917626   -0.1436279399
F    -10.6957020709    3.4292827197    0.9545673361
F    -10.6417066378    3.4370866634   -1.1994510085





--Link1--
%chk=CP19.M062X_6-311pGd_opt_Pentadecane_GD3.chk
# M062X/6-311+G* SCF=Tight INT(grid=ultrafine)     SCRF=(SMD,Solvent=n-Pentadecane)EmpiricalDispersion=GD3 Freq=Noraman 
geom=check guess=read IOP(2/17=4)

CP19.M062X_6-311pGd_opt_Pentadecane_GD3

0 1



