%chk=CP19.MP2_GTMP2LARGE.chk
# MP2/Gen 5D SCF=Tight INT(grid=ultrafine)    

CP19.MP2_GTMP2LARGE

0 1
C     -6.3330693079    1.2172209296   -0.0297743341
N     -5.0559207952    0.6543032575    0.0113379765
C     -3.8339772072    1.3190363472   -0.0600817055
O     -3.7244688526    2.5151564473   -0.2125443484
N     -2.7561925247    0.4740653666    0.0290542430
C     -1.4163577481    1.0457949276    0.0845918885
C     -0.3660391645   -0.0476636544   -0.0423451047
C      1.0466459308    0.5259266287    0.0053945548
C     -6.5672908250    2.5955289002   -0.0025492504
C     -7.8734078117    3.0617026490   -0.0240442857
C     -8.9656654608    2.1956141580   -0.0741504389
C     -8.7160692052    0.8265330952   -0.1023504397
C     -7.4226979591    0.3396537315   -0.0809325327
H     -5.0292539606   -0.3522090217   -0.0527039582
H     -2.8830062570   -0.4144880293    0.4918430712
H     -1.2754276262    1.6104162594    1.0138572390
H     -1.3285652911    1.7594203219   -0.7360657637
H     -0.5253641616   -0.5873365106   -0.9805353888
H     -0.4930496361   -0.7756340091    0.7678658223
H      1.2080013083    1.2377257198   -0.8075074831
H      1.7964855078   -0.2609479653   -0.0876212263
H      1.2286212290    1.0500458195    0.9466303840
H     -5.7459671957    3.2940543512    0.0270650490
Cl    -8.1069986059    4.7833091285    0.0128980000
C    -10.3810141806    2.7007688394   -0.0985018428
H     -9.5484446251    0.1357290585   -0.1420335305
H     -7.2542469943   -0.7320660790   -0.1022631828
F    -11.2585898342    1.6852318988   -0.1471586998
F    -10.6842407062    3.4203085286    0.9906365458
F    -10.6279780395    3.4751489053   -1.1637612580

@/home/507/hio507/Basis/GTMP2LARGE.gbs/N


