%chk=29_c2.MP2_GTMP2LARGE.chk
# MP2/Gen 5D SCF=Tight INT(grid=ultrafine)    

29_c2.MP2_GTMP2LARGE

0 1
C     -6.2141600000    0.5911500000    0.7870800000
N     -4.8460300000    0.1521400000    0.6862500000
C     -3.7539100000    0.8725700000    0.2817600000
O     -3.8531100000    2.0415500000   -0.0549000000
N     -2.5294400000    0.2738500000    0.2537400000
C     -1.3139200000    1.0256800000   -0.0065700000
C     -0.3681600000    0.2413100000   -0.9233600000
C      1.0921600000    0.5244100000   -0.5832500000
C     -7.3212000000   -0.2656900000    0.9942700000
C     -8.6376000000    0.2341300000    1.0832900000
C     -8.8477900000    1.6309000000    0.9610500000
C     -7.7568200000    2.4774400000    0.7566400000
C     -6.4640700000    1.9677800000    0.6711800000
H     -0.7990300000    1.2344700000    0.9572400000
H     -1.5774400000    1.9909000000   -0.4929600000
H     -0.5543300000    0.5288300000   -1.9811400000
H     -0.5603100000   -0.8478700000   -0.8095000000
H      1.3153900000    1.6053500000   -0.7090400000
H      1.7517100000   -0.0561800000   -1.2621000000
H      1.3093900000    0.2262400000    0.4646000000
H     -7.2079400000   -1.3293400000    1.0924200000
C     -9.7444100000   -0.7819300000    1.3070000000
Cl   -10.4298500000    2.4016100000    1.0503900000
H     -7.9091500000    3.5455600000    0.6622600000
H     -5.6463400000    2.6599400000    0.5120000000
F     -9.5052100000   -1.4604800000    2.4886200000
F    -11.0048900000   -0.2255600000    1.3841600000
F     -9.7431600000   -1.6910300000    0.2642000000
H     -2.5309700000   -0.8827800000    0.1995400000
H     -5.0169500000   -0.9759800000    1.2931400000

@/home/507/hio507/Basis/GTMP2LARGE.gbs/N


