%chk=CP22.M062X_6-311pGd_opt_water_GD3.chk
# M062X/6-311+G* SCF=Tight INT(grid=ultrafine) OPT IOP(2/17=4)   EmpiricalDispersion=GD3  SCRF=(SMD,Solvent=h2o)

CP22.M062X_6-311pGd_opt_water_GD3

0 1
C     -5.9305519355    1.2085947693    0.1459031147
N     -4.6897157258    0.6141983876   -0.0669836960
C     -3.4486683980    1.2165906561    0.0564215683
O     -3.3096816292    2.4082617050    0.3374135880
N     -2.4044560965    0.3944442985   -0.1671399619
C     -1.0368786450    0.8515573596    0.0531412266
C     -0.0498972822   -0.2586102257   -0.2657582664
C      1.3837153748    0.1983712802   -0.0255772601
C     -6.1391003483    2.5908137247    0.0967898158
C     -7.4253845446    3.0592807973    0.3036804665
C     -8.5260684218    2.2533283927    0.5404383301
C     -8.2809014382    0.8866685874    0.5646492089
C     -7.0176020553    0.3571900937    0.3788595609
H     -4.7023789478   -0.3941514868   -0.1619048203
H     -2.5634078747   -0.5965628138   -0.2947704597
H     -0.9188307550    1.1745508418    1.0923214006
H     -0.8453767647    1.7195376965   -0.5823518882
H     -0.1771806221   -0.5665398841   -1.3079889639
H     -0.2741347058   -1.1310661534    0.3562950649
H      1.6304755155    1.0607424202   -0.6502241031
H      2.0940716971   -0.5970799369   -0.2580019021
H      1.5340294933    0.4868930026    1.0179131840
H     -5.3192645715    3.2611395107   -0.1048337525
Cl    -9.6147099288   -0.1973792161    0.8504149381
H     -6.8636006235   -0.7154898643    0.4136680778
S     -7.6823951873    4.8486530121    0.2504351365
H     -9.5213321422    2.6466648223    0.6969329191
F     -6.7916659125    5.0259100282   -1.0874260494
F     -9.0129147071    4.7171605364   -0.6595106428
F     -6.3775279924    5.1518741719    1.1554753964
F     -8.5992027518    4.8427784518    1.5829568630
F     -7.9142220730    6.4497950345    0.2034819063





--Link1--
%chk=CP22.M062X_6-311pGd_opt_water_GD3.chk
# M062X/6-311+G* SCF=Tight INT(grid=ultrafine)     SCRF=(SMD,Solvent=h2o)EmpiricalDispersion=GD3 Freq=Noraman 
geom=check guess=read IOP(2/17=4)

CP22.M062X_6-311pGd_opt_water_GD3

0 1



