%chk=CP22_c2.M062X_6-311pGd_opt_water_GD3.chk
# M062X/6-311+G* SCF=Tight INT(grid=ultrafine) OPT IOP(2/17=4)   EmpiricalDispersion=GD3  SCRF=(SMD,Solvent=h2o)

CP22_c2.M062X_6-311pGd_opt_water_GD3

0 1
C     -5.9499214769    1.3859258987    0.0639526650
N     -4.7390876147    0.7158866294   -0.1095507435
C     -3.4778278579    1.2696253435    0.0526483430
O     -3.3021008297    2.4631303585    0.3046657432
N     -2.4628468266    0.3971558978   -0.0854865095
C     -1.0765596161    0.8262668089    0.0563774363
C     -0.1376918538   -0.3515497196   -0.1426322164
C      1.3176195394    0.0772370558   -0.0021210454
C     -7.0585809823    0.6300519937    0.4622476317
C     -8.2760392956    1.2666360877    0.6054622237
C     -8.4677356357    2.6222006582    0.3857926467
C     -7.3483190430    3.3356198620   -0.0158639511
C     -6.1033117071    2.7516548657   -0.1915510954
H     -4.7961339937   -0.2956539724   -0.1130004185
H     -2.6498173853   -0.5701720737   -0.3128168345
H     -0.9316187561    1.2606436642    1.0494861850
H     -0.8615723956    1.6084691254   -0.6773833402
H     -0.3073805965   -0.7848284303   -1.1332779035
H     -0.3728709748   -1.1282653206    0.5916463811
H      1.5756801779    0.8385972493   -0.7426725756
H      1.9918374515   -0.7693273907   -0.1440082129
H      1.5096094744    0.4955735222    0.9892583524
H     -6.9429330990   -0.4297505755    0.6539900030
Cl    -7.5194400082    5.0410433488   -0.3357935184
H     -5.2694919164    3.3455257540   -0.5336561736
S     -9.6984703196    0.2790199264    1.1217300644
H     -9.4271083400    3.1062556465    0.5096831755
F     -8.8534134892   -0.5074028294    2.2537020177
F    -10.1581282117    1.3660435832    2.2266513202
F     -9.3726656217   -0.9012930543    0.0656733023
F    -10.6788180741    0.9711368170    0.0383686330
F    -10.9734807220   -0.6030767302    1.5838884138





--Link1--
%chk=CP22_c2.M062X_6-311pGd_opt_water_GD3.chk
# M062X/6-311+G* SCF=Tight INT(grid=ultrafine)     SCRF=(SMD,Solvent=h2o)EmpiricalDispersion=GD3 Freq=Noraman 
geom=check guess=read IOP(2/17=4)

CP22_c2.M062X_6-311pGd_opt_water_GD3

0 1



