%chk=NM2.M062X_6-311pGd_opt_Pentadecane_GD3.chk
# M062X/6-311+G* SCF=Tight INT(grid=ultrafine) OPT IOP(2/17=4)   EmpiricalDispersion=GD3  SCRF=(SMD,Solvent=n-Pentadecane)

NM2.M062X_6-311pGd_opt_Pentadecane_GD3

0 1
C     -5.9014119906    1.1199204820    0.1889817829
N     -4.6401699492    0.5443820844    0.0656742842
C     -3.4059865466    1.1922071426    0.0851531744
O     -3.2821597140    2.3908659295    0.2376918784
N     -2.3490638215    0.3430625848   -0.0575494047
C     -0.9935574286    0.8680964571   -0.1556708458
C      0.0218868086   -0.2516957214    0.0177248355
C      1.4504132515    0.2700085554   -0.0854210457
C     -6.1297917309    2.5022322038    0.1622543680
C     -7.4206531451    2.9991055757    0.2730008504
C     -8.5154789087    2.1376632210    0.4252571117
C     -8.2789982594    0.7667299616    0.4376501498
C     -6.9966460866    0.2622662003    0.3221980587
H     -4.6257952274   -0.4659597086    0.0814516939
H     -2.5100120329   -0.5844958535   -0.4236958501
H     -0.8700107439    1.6201805753    0.6250855929
H     -0.8460472318    1.3737768763   -1.1170253847
H     -0.1450799752   -1.0191219574   -0.7471859536
H     -0.1378092064   -0.7299368550    0.9888516070
H      1.6345693170    0.7309291888   -1.0592074569
H      2.1753547792   -0.5358432871    0.0425911543
H      1.6509589136    1.0223232461    0.6815691417
H     -5.2969843319    3.1788726454    0.0557508620
H     -6.8431832516   -0.8117890194    0.3405216255
C     -9.9429579464    2.6056405790    0.5426001912
C     -7.5691836161    4.5053204449    0.2562578642
H     -9.1086694752    0.0802826459    0.5479142103
F    -10.0768744967    3.6645781103    1.3503053199
F    -10.7301809063    1.6394028075    1.0442766773
F    -10.4734590788    2.9417103906   -0.6442475518
F     -6.4920074726    5.1032837803   -0.2674670892
F     -7.7232625427    5.0064581108    1.4904138974
F     -8.6205679529    4.9031126029   -0.4712857490





--Link1--
%chk=NM2.M062X_6-311pGd_opt_Pentadecane_GD3.chk
# M062X/6-311+G* SCF=Tight INT(grid=ultrafine)     SCRF=(SMD,Solvent=n-Pentadecane) EmpiricalDispersion=GD3  Freq=Noraman 
geom=check guess=read IOP(2/17=4)

NM2.M062X_6-311pGd_opt_Pentadecane_GD3

0 1



