%chk=29CA.M062X_6-311pGd_opt_Pentadecane_GD3.chk
# M062X/6-311+G* SCF=Tight INT(grid=ultrafine) OPT=CalcAll IOP(2/17=4) Symmetry=None   EmpiricalDispersion=GD3  SCRF=(SMD,Solvent=n-Pentadecane)

29CA.M062X_6-311pGd_opt_Pentadecane_GD3

0 1
C     -6.1858060079    1.2792092335   -0.0205279427
N     -4.8998531053    0.7263285931   -0.0659148369
C     -3.7095612646    1.3860457960   -0.0151736997
O     -3.5624097658    2.5904194591    0.0591486653
O     -2.7000404237    0.5078868703   -0.0587034318
C     -1.3697656386    1.0669354982   -0.0120109016
C     -0.3880951073   -0.0810084177   -0.0712784467
C      1.0439515105    0.4413652888   -0.0311778330
C     -6.4420542780    2.6483717266   -0.1013540311
C     -7.7536742505    3.1110886366   -0.0559778253
C     -8.8141633376    2.2163228876    0.0620402430
C     -8.5617648294    0.8533768141    0.1348919764
C     -7.2581182782    0.3901778931    0.0946522615
H     -4.8439726611   -0.2848530275   -0.0834381776
H     -1.2639982692    1.6373934863    0.9130247464
H     -1.2464049036    1.7433803703   -0.8603027072
H     -0.5582430802   -0.6513720571   -0.9884722908
H     -0.5707495642   -0.7530026214    0.7716840625
H      1.2455096284    1.1029162356   -0.8774480475
H      1.7594993495   -0.3813839111   -0.0722598648
H      1.2326663699    1.0037833314    0.8867163148
H     -5.6318398205    3.3526975881   -0.2015175058
C     -8.0004340489    4.5926809895   -0.1410539184
Cl   -10.4692958576    2.7621235865    0.1217015864
H     -9.3839233871    0.1544448679    0.2254699609
H     -7.0677291367   -0.6760622835    0.1541775674
F     -6.8640501562    5.2904677083   -0.2550301694
F     -8.7599423480    4.9212339085   -1.1998786791
F     -8.6325073383    5.0645315487    0.9473129247





--Link1--
%chk=29CA.M062X_6-311pGd_opt_Pentadecane_GD3.chk
# M062X/6-311+G* SCF=Tight INT(grid=ultrafine)   EmpiricalDispersion=GD3  Symmetry=None SCRF=(SMD,Solvent=n-Pentadecane)  Freq=Noraman
geom=check guess=read IOP(2/17=4)

29CA.M062X_6-311pGd_opt_Pentadecane_GD3

0 1



