%NprocShared=6
%Mem=1194000MB
%chk=NM3.DSDPBEP86_AUG-cc-PVTZ.chk
# DSDPBEP86/AUG-cc-PVTZ SCF=Tight INT(grid=ultrafine) MaxDisk=1400000MB

NM3.DSDPBEP86_AUG-cc-PVTZ

0 1
C     -6.0172036339    1.1872070518    0.1983959368
N     -4.7587625677    0.5930489656    0.0579894263
C     -3.5192462680    1.2216443173    0.1495818385
O     -3.3759427487    2.3975115375    0.3995520635
N     -2.4661513407    0.3623029774   -0.0439817964
C     -1.1150815817    0.9078869651   -0.0939118235
C     -0.0881682808   -0.2147593715   -0.0991538557
C      1.3357328559    0.3304889140   -0.1462115899
C     -6.2178063340    2.5735593582    0.2138962626
C     -7.5118526204    3.0570830597    0.3268234319
C     -8.6211165558    2.2230973444    0.4246094565
C     -8.3969659865    0.8574148908    0.4066567910
C     -7.1187161563    0.3328397602    0.2970709479
H     -4.7550776509   -0.4157984814    0.0652564864
H     -2.6300127440   -0.4738084885   -0.5863217496
H     -0.9841349354    1.5436059956    0.7830940832
H     -0.9897209083    1.5499389103   -0.9738742421
H     -0.2593691538   -0.8659733321   -0.9646794663
H     -0.2297407086   -0.8312330708    0.7934318835
H      1.4998630818    0.9292699996   -1.0452451623
H      2.0689899774   -0.4772463353   -0.1459043899
H      1.5403421068    0.9665647032    0.7181337156
H     -5.3783539209    3.2476789166    0.1493650524
Cl    -9.7463194848   -0.2355593436    0.5256953527
H     -6.9851051851   -0.7435640815    0.2881827441
C     -7.7616830585    4.5411122719    0.3420995719
H     -9.6237238277    2.6226348860    0.5125733089
F     -8.5511706811    4.9127188941   -0.6796423089
F     -8.3916044626    4.9192843091    1.4662130987
F     -6.6376072260    5.2555184761    0.2554849325




