%NprocShared=6
%Mem=16000MB
%chk=NM3.M062X_6-311pGd_opt_water_GD3.chk
# M062X/6-311+G* SCF=Tight INT(grid=ultrafine) OPT IOP(2/17=4)   EmpiricalDispersion=GD3   SCRF=(SMD,Solvent=h2o) MaxDisk=10000MB

NM3.M062X_6-311pGd_opt_water_GD3

0 1
C     -6.0120946953    1.1940893907    0.1163483113
N     -4.7639830535    0.6165028553   -0.1331749034
C     -3.5369762946    1.2039395858    0.1288204071
O     -3.4252167818    2.3561268761    0.5537801681
N     -2.4730908326    0.4150161993   -0.1152918978
C     -1.1134468425    0.9008974847    0.0866509047
C     -0.1081608851   -0.1810425289   -0.2701786496
C      1.3204651218    0.3107448257   -0.0730397222
C     -6.2363368501    2.5733858954    0.0399844071
C     -7.5131037759    3.0589482250    0.2763876704
C     -8.5906858485    2.2269101688    0.5656469602
C     -8.3429496707    0.8652052462    0.6128796635
C     -7.0789743703    0.3377471631    0.4011378616
H     -4.7684006049   -0.3869908034   -0.2721229364
H     -2.6045056356   -0.5078269392   -0.5068347935
H     -0.9884397621    1.2020856016    1.1303754130
H     -0.9475150265    1.7881370958   -0.5315190949
H     -0.2598122155   -0.4852666543   -1.3106126517
H     -0.2911651617   -1.0627903952    0.3516624354
H      1.5273325182    1.1786782858   -0.7043756696
H      2.0423388483   -0.4673601090   -0.3276946072
H      1.4953401668    0.6027000231    0.9656573578
H     -5.4298451196    3.2452884528   -0.2090908185
Cl    -9.6588076234   -0.2250867382    0.9684539341
H     -6.9133746915   -0.7322800111    0.4575471135
C     -7.7805192637    4.5330570115    0.1861742981
H     -9.5826608807    2.6251828495    0.7421789823
F     -8.5878964636    4.8316710582   -0.8493429085
F     -8.3967483390    4.9992829633    1.2869339014
F     -6.6664759666    5.2575169214    0.0278388637





--Link1--
%chk=NM3.M062X_6-311pGd_opt_water_GD3.chk
# M062X/6-311+G* SCF=Tight INT(grid=ultrafine)   EmpiricalDispersion=GD3   SCRF=(SMD,Solvent=h2o)  Freq=Noraman MaxDisk=10000MB
geom=check guess=read IOP(2/17=4)

NM3.M062X_6-311pGd_opt_water_GD3

0 1



