%chk=NM3CA.M062X_6-311pGd_opt_Pentadecane_GD3.chk
# M062X/6-311+G* SCF=Tight INT(grid=ultrafine) OPT IOP(2/17=4)   EmpiricalDispersion=GD3  SCRF=(SMD,Solvent=n-Pentadecane)

NM3CA.M062X_6-311pGd_opt_Pentadecane_GD3

0 1
C     -5.9547242084    1.2840091746    0.1927342794
N     -4.6756321740    0.7292783242    0.0972948991
C     -3.4739341982    1.3912657707    0.0952485438
O     -3.3163701939    2.5832011150    0.1765238374
O     -2.4831193571    0.4957120461   -0.0127785937
C     -1.1515355491    1.0407725598   -0.0284513273
C     -0.1814981671   -0.1128979066   -0.1550184828
C      1.2574523497    0.3927344106   -0.1776331953
C     -6.1924091432    2.6590703093    0.3014192173
C     -7.5037345054    3.1014428950    0.3897803191
C     -8.5921798846    2.2362130035    0.3750699477
C     -8.3277838627    0.8810581808    0.2666496120
C     -7.0335991862    0.3953777511    0.1758249634
H     -4.6163847922   -0.2766475818    0.0213102093
H     -0.9913651467    1.6033524987    0.8944146048
H     -1.0656509089    1.7342708444   -0.8683962799
H     -0.4036797786   -0.6684869022   -1.0702918398
H     -0.3302063123   -0.7991155487    0.6832904962
H      1.4286818176    1.0673936368   -1.0204000745
H      1.9615084528   -0.4358684540   -0.2691137998
H      1.5025089754    0.9359182848    0.7386826183
H     -5.3710423654    3.3584178948    0.3156846136
Cl    -9.6541649715   -0.2485193191    0.2430312511
H     -6.8628807365   -0.6722154680    0.0919518897
C     -7.7940091181    4.5719447523    0.5103922927
H     -9.6084352697    2.6044290161    0.4452323974
F     -8.5769857344    5.0034148676   -0.4932390973
F     -8.4514771624    4.8521978371    1.6488674686
F     -6.6890588692    5.3224460073    0.4988692297





--Link1--
%chk=NM3CA.M062X_6-311pGd_opt_Pentadecane_GD3.chk
# M062X/6-311+G* SCF=Tight INT(grid=ultrafine)     SCRF=(SMD,Solvent=n-Pentadecane) EmpiricalDispersion=GD3  Freq=Noraman 
geom=check guess=read IOP(2/17=4)

NM3CA.M062X_6-311pGd_opt_Pentadecane_GD3

0 1



