%NprocShared=6
%Mem=192000MB
%chk=NM3CA_c2.DSDPBEP86_AUG-cc-PVTZ.chk
# DSDPBEP86/AUG-cc-PVTZ SCF=Tight INT(grid=ultrafine) MaxDisk=60000MB

NM3CA_c2.DSDPBEP86_AUG-cc-PVTZ

0 1
C     -5.9363567378    1.4871685131    0.2139658711
N     -4.6853388909    0.8757892616    0.0795614564
C     -3.4511677975    1.4756191940    0.1262232574
O     -3.2317298801    2.6470234401    0.2916282537
O     -2.5066698127    0.5366687427   -0.0444015202
C     -1.1517696602    1.0128764794   -0.0197271348
C     -0.2427370649   -0.1790216373   -0.2276800899
C      1.2234609946    0.2447063279   -0.2146277537
C     -7.0615804509    0.6602121180    0.1419496509
C     -8.3271195545    1.2061155390    0.2727268139
C     -8.5149941624    2.5682171936    0.4733689354
C     -7.3848828587    3.3682391418    0.5410166345
C     -6.0985697763    2.8603143526    0.4158612955
H     -4.6723450703   -0.1227935437   -0.0665327150
H     -0.9676104547    1.5013770129    0.9401909800
H     -1.0269831357    1.7608188425   -0.8064807907
H     -0.4933609552   -0.6560361718   -1.1790401409
H     -0.4342034094   -0.9141876367    0.5586463706
H      1.4351380334    0.9665312717   -1.0071614225
H      1.8798987690   -0.6132456076   -0.3645154449
H      1.4945754304    0.7072008053    0.7375011861
H     -6.9461794053   -0.4076650211   -0.0076883987
Cl    -7.5807874619    5.0775547305    0.7976637603
H     -5.2427687981    3.5152890208    0.4771091532
C     -9.5291495216    0.3144669474    0.1321585646
H     -9.5047148548    2.9921872255    0.5812145730
F    -10.5610352639    0.7458733944    0.8670596835
F     -9.9534568902    0.2592616547   -1.1408199190
F     -9.2664013594   -0.9454615912    0.5071688903




