%chk=NM3CA.M062X_6-311pGd_opt_water_GD3.chk
# M062X/6-311+G* SCF=Tight INT(grid=ultrafine) OPT IOP(2/17=4)   EmpiricalDispersion=GD3  SCRF=(SMD,Solvent=h2o)

NM3CA.M062X_6-311pGd_opt_water_GD3

0 1
C     -5.9573517870    1.2858097539    0.1570356574
N     -4.6814719437    0.7295484851    0.0121313675
C     -3.4815673624    1.3718588040    0.0950084530
O     -3.3187582651    2.5607748106    0.2848537958
O     -2.4844686676    0.4942432419   -0.0641293783
C     -1.1479025023    1.0367116736    0.0013691599
C     -0.1789401026   -0.1066701085   -0.1946870274
C      1.2581319888    0.4008199660   -0.1439462150
C     -6.1969997009    2.6608599392    0.2436809536
C     -7.5056193516    3.1014545520    0.3781291104
C     -8.5909090031    2.2340825002    0.4242872599
C     -8.3211283606    0.8782348046    0.3299147123
C     -7.0313465563    0.3917952672    0.1995572544
H     -4.6346026375   -0.2753465470   -0.1086207796
H     -1.0132738029    1.5139889085    0.9741265389
H     -1.0403703274    1.7912493754   -0.7806345580
H     -0.3786301133   -0.5851727093   -1.1573059933
H     -0.3449088344   -0.8551984009    0.5848229073
H      1.4431110058    1.1379428702   -0.9293728769
H      1.9655300662   -0.4185430342   -0.2811427219
H      1.4753928722    0.8732099355    0.8173723046
H     -5.3831901422    3.3669239556    0.2048100681
Cl    -9.6458694356   -0.2553316184    0.3811718635
H     -6.8511116132   -0.6751728254    0.1317054417
C     -7.7926186623    4.5722448434    0.4708544525
H     -9.6050217718    2.6008042221    0.5283972166
F     -8.5775893315    4.9917806978   -0.5382626836
F     -8.4439215188    4.8830597567    1.6061848875
F     -6.6863041387    5.3242068800    0.4396388293





--Link1--
%chk=NM3CA.M062X_6-311pGd_opt_water_GD3.chk
# M062X/6-311+G* SCF=Tight INT(grid=ultrafine)     SCRF=(SMD,Solvent=h2o) EmpiricalDispersion=GD3  Freq=Noraman 
geom=check guess=read IOP(2/17=4)

NM3CA.M062X_6-311pGd_opt_water_GD3

0 1



