%chk=29_c2.M062X_6-311pGd_opt_GD3.chk
# M062X/6-311+G* SCF=Tight INT(grid=ultrafine) OPT=CalcFC IOP(2/17=4)   EmpiricalDispersion=GD3 

29_c2.M062X_6-311pGd_opt_GD3

0 1
C     -6.1858600000    0.6423400000    0.9298200000
N     -4.8221100000    0.1954100000    0.8068800000
C     -3.7539100000    0.8725700000    0.2817600000
O     -3.8744700000    2.0029100000   -0.1626500000
N     -2.5294400000    0.2738500000    0.2537400000
C     -1.3139200000    1.0256800000   -0.0065700000
C     -0.3681600000    0.2413100000   -0.9233600000
C     -0.1070100000    0.9958600000   -2.2236700000
C     -7.2777700000   -0.1899200000    1.2729000000
C     -8.5907000000    0.3163700000    1.3756600000
C     -8.8129100000    1.6944400000    1.1274100000
C     -7.7368700000    2.5167300000    0.7888800000
C     -6.4473600000    2.0010000000    0.6917500000
H     -0.7990300000    1.2344700000    0.9572400000
H     -1.5774400000    1.9909000000   -0.4929600000
H     -0.8193200000   -0.7460500000   -1.1637600000
H      0.5998500000    0.0750400000   -0.4022900000
H     -1.0582900000    1.1571500000   -2.7742600000
H      0.5794900000    0.4046400000   -2.8656200000
H      0.3633600000    1.9796300000   -2.0114600000
H     -7.1550600000   -1.2388300000    1.4692300000
C     -9.6808600000   -0.6727300000    1.7507500000
Cl   -10.3924200000    2.4703800000    1.2167100000
H     -7.8984500000    3.5704600000    0.5977400000
H     -5.6413700000    2.6741200000    0.4264300000
F     -9.3823100000   -1.2321400000    2.9803000000
F    -10.9387500000   -0.1113300000    1.8334900000
F     -9.7252900000   -1.6797200000    0.8031800000
H     -2.5309700000   -0.8827800000    0.1995400000
H     -4.9586300000   -0.8677300000    1.5288800000





--Link1--
%chk=29_c2.M062X_6-311pGd_opt_GD3.chk
# M062X/6-311+G* SCF=Tight INT(grid=ultrafine)   EmpiricalDispersion=GD3   Freq=Noraman
geom=check guess=read IOP(2/17=4)

29_c2.M062X_6-311pGd_opt_GD3

0 1



