%chk=CP19CA.M062X_6-311pGd_opt_GD3.chk
# M062X/6-311+G* SCF=Tight INT(grid=ultrafine) OPT IOP(2/17=4)   EmpiricalDispersion=GD3 

CP19CA.M062X_6-311pGd_opt_GD3

0 1
C     -6.2986157710    1.2792363771    0.0196052719
N     -5.0005518645    0.7634560885    0.0439966176
C     -3.8183408511    1.4625764263    0.0025357782
O     -3.6965736178    2.6573374055   -0.0627471432
O     -2.7980977059    0.5907631029    0.0469194589
C     -1.4865965736    1.1760108927    0.0113261378
C     -0.4783794730    0.0490593663    0.0696261333
C      0.9476633498    0.5920979694    0.0359847812
C     -6.5744819764    2.6468797541   -0.0538669888
C     -7.8953922892    3.0707290688   -0.0731993507
C     -8.9578971681    2.1688472615   -0.0212777884
C     -8.6648023036    0.8099101308    0.0516854555
C     -7.3561195453    0.3651864962    0.0721827799
H     -4.9040983087   -0.2398115233    0.0981706318
H     -1.3825157253    1.8581318356    0.8585702577
H     -1.3876330063    1.7622983713   -0.9054173725
H     -0.6494076791   -0.6258006714   -0.7734539546
H     -0.6443128755   -0.5304384987    0.9818321872
H      1.1349757582    1.1591204278   -0.8790768785
H      1.6760849049   -0.2185130859    0.0779241434
H      1.1400793239    1.2548780520    0.8831188367
H     -5.7760323681    3.3716149943   -0.0954365743
Cl    -8.1843420040    4.7811072467   -0.1652429118
C    -10.3899547129    2.6270679107   -0.0421712659
H     -9.4752001997    0.0935962777    0.0928336641
H     -7.1504007194   -0.6983030214    0.1293471464
F    -11.2341333454    1.5848498660    0.0168168551
F    -10.6844115297    3.4221755871    0.9950473943
F    -10.6904317232    3.3052058912   -1.1577733024





--Link1--
%chk=CP19CA.M062X_6-311pGd_opt_GD3.chk
# M062X/6-311+G* SCF=Tight INT(grid=ultrafine)     EmpiricalDispersion=GD3  Freq=Noraman 
geom=check guess=read IOP(2/17=4)

CP19CA.M062X_6-311pGd_opt_GD3

0 1



