%chk=29.MP2_6-31pGd.chk
# MP2/Gen 6D SCF=Tight INT(grid=ultrafine)    

29.MP2_6-31pGd

0 1
C     -6.2009231637    1.1990203291    0.6560703402
N     -4.9142114676    0.6459745048    0.6490924609
C     -3.7212946558    1.3045173835    0.3685412452
O     -3.6480555079    2.4834609009    0.1015979647
N     -2.6215149277    0.4852927514    0.4523941644
C     -1.3212566893    1.0160004795    0.0609797986
C     -0.2179881904    0.0273533668    0.4078676260
C      1.1560335356    0.5626239616    0.0173066045
C     -6.5036395506    2.4537168803    0.1204754150
C     -7.8141412702    2.9187704705    0.1366871993
C     -8.8361418833    2.1438200575    0.6825167252
C     -8.5369664744    0.8980357944    1.2152670638
C     -7.2333003554    0.4324190255    1.2026408709
H     -4.8375477155   -0.2673863287    1.0705467710
H     -2.7588539891   -0.5051818099    0.3100634237
H     -1.1749202459    1.9567526753    0.5939704971
H     -1.3057767869    1.2514197699   -1.0098178583
H     -0.4005045032   -0.9230921437   -0.1077813095
H     -0.2525923503   -0.1831702818    1.4808797339
H      1.2131551346    0.7584071106   -1.0560819950
H      1.9440043725   -0.1489565459    0.2681185016
H      1.3740347313    1.4983193806    0.5373684005
H     -5.7199573762    3.0661907029   -0.2970930212
C     -8.1075334885    4.2777464305   -0.4514059011
Cl   -10.4860670074    2.6888579962    0.7210369835
H     -9.3301565174    0.2966433893    1.6414681285
H     -7.0169405040   -0.5443075120    1.6245592595
F     -8.9756300916    4.2012870317   -1.4696151085
F     -8.6324983511    5.1107595171    0.4569397779
F     -7.0023947108    4.8632747122   -0.9255337623

@/home/507/hio507/Basis/6-31pGd.gbs/N


