%chk=CP22_c2.M062X_6-311pGd_opt_GD3.chk
# M062X/6-311+G* SCF=Tight INT(grid=ultrafine) OPT=CalcFC IOP(2/17=4)   EmpiricalDispersion=GD3 

CP22_c2.M062X_6-311pGd_opt_GD3

0 1
C     -5.9777200000    1.1313800000    0.2240300000
N     -4.7124500000    0.4599800000    0.1242200000
C     -3.4759300000    1.0350600000    0.0933900000
O     -3.3385800000    2.2456100000    0.1576400000
N     -2.3724700000    0.2486100000   -0.0026500000
C     -1.0442500000    0.8286800000   -0.0289400000
C      0.0241400000   -0.2574500000   -0.1433000000
C      1.4210600000    0.3528200000   -0.1636700000
C     -7.2157700000    0.5032900000    0.5258700000
C     -8.4200800000    1.2356200000    0.6143900000
C     -8.3827300000    2.6086900000    0.3959100000
C     -7.1739100000    3.2216600000    0.1063000000
C     -5.9867800000    2.5099900000    0.0204300000
H     -4.7447000000   -0.5727000000    0.0797000000
H     -2.4854700000   -0.7764100000   -0.0564300000
H     -0.8828600000    1.4092000000    0.9071100000
H     -0.9659700000    1.5183600000   -0.8989000000
H     -0.1359900000   -0.8349200000   -1.0796600000
H     -0.0590000000   -0.9473400000    0.7241700000
H      1.5321700000    1.0342200000   -1.0341100000
H      2.1766300000   -0.4557400000   -0.2437100000
H      1.6057000000    0.9232600000    0.7717000000
H     -7.2882000000   -0.5408200000    0.7113500000
Cl    -7.1432900000    4.9226800000   -0.1345300000
H     -5.0715700000    3.0524600000   -0.2029000000
S     -9.9814400000    0.4046900000    1.0273200000
H     -9.2765100000    3.2197200000    0.4587300000
F     -9.2216300000   -0.3965600000    2.3368400000
F    -10.4154000000    1.6799000000    2.0956800000
F     -9.5873400000   -0.8739300000   -0.0324300000
F    -10.7625700000    1.2040300000   -0.2700300000
F    -11.4557100000   -0.3816600000    1.3918900000





--Link1--
%chk=CP22_c2.M062X_6-311pGd_opt_GD3.chk
# M062X/6-311+G* SCF=Tight INT(grid=ultrafine)     EmpiricalDispersion=GD3  Freq=Noraman 
geom=check guess=read IOP(2/17=4)

CP22_c2.M062X_6-311pGd_opt_GD3

0 1



