%chk=CP22.M062X_6-311pGd_opt_Pentadecane_GD3.chk
# M062X/6-311+G* SCF=Tight INT(grid=ultrafine) OPT IOP(2/17=4)   EmpiricalDispersion=GD3  SCRF=(SMD,Solvent=n-Pentadecane)

CP22.M062X_6-311pGd_opt_Pentadecane_GD3

0 1
C     -5.9332560376    1.1994391082    0.2568385681
N     -4.6770143699    0.5983159990    0.2308374034
C     -3.4429475440    1.2245034859    0.0704933370
O     -3.3168272460    2.4214227428   -0.0947380416
N     -2.3922994367    0.3569113677    0.0915787805
C     -1.0261577550    0.8612204870    0.0354378406
C     -0.0502729893   -0.2811075738   -0.2048171786
C      1.3883973035    0.2187262288   -0.2686155345
C     -6.1266352805    2.5859916207    0.2701206556
C     -7.4269342617    3.0581730718    0.3153316887
C     -8.5522085045    2.2513663939    0.3482977704
C     -8.3236114767    0.8827993518    0.3343097708
C     -7.0475418923    0.3518866595    0.2888290951
H     -4.6811792399   -0.4116656067    0.2252213263
H     -2.5266975602   -0.5674767438    0.4762771629
H     -0.7750231646    1.3919120054    0.9610054342
H     -0.9708197933    1.5879966975   -0.7766626819
H     -0.3165649507   -0.7874249064   -1.1376300431
H     -0.1476934881   -1.0203669116    0.5988974966
H      1.5177336818    0.9422133786   -1.0774852190
H      2.0845326545   -0.6033720971   -0.4442266654
H      1.6798300602    0.7076849300    0.6644100189
H     -5.2806914299    3.2540241047    0.2403176050
Cl    -9.6854106909   -0.2012170119    0.3733644424
H     -6.9145244273   -0.7244518389    0.2782064859
S     -7.6695845645    4.8546447405    0.3337000370
H     -9.5564648415    2.6501819328    0.3825703924
F     -6.5832106939    5.0934789379   -0.8339463172
F     -8.8431351734    4.7811889474   -0.7765720247
F     -6.5231222197    5.0762757289    1.4477733894
F     -8.7831968022    4.7646478179    1.5035472788
F     -7.8922278657    6.4501969514    0.3520477261





--Link1--
%chk=CP22.M062X_6-311pGd_opt_Pentadecane_GD3.chk
# M062X/6-311+G* SCF=Tight INT(grid=ultrafine)     SCRF=(SMD,Solvent=n-Pentadecane)EmpiricalDispersion=GD3 Freq=Noraman 
geom=check guess=read IOP(2/17=4)

CP22.M062X_6-311pGd_opt_Pentadecane_GD3

0 1



